
 OpenBabel11102118173D

 29 32  0  0  0  0  0  0  0  0999 V2000
    0.0570   14.7180   15.8940 C   0  0  0  0  0  0  0  0  0  0  0  0
    0.5820   13.4820   16.2110 N   0  0  0  0  0  4  0  0  0  0  0  0
   -0.3780   12.6430   15.8910 C   0  0  0  0  0  0  0  0  0  0  0  0
   -0.4580   11.2930   15.9480 N   0  0  0  0  0  0  0  0  0  0  0  0
   -1.5600   10.7410   15.5160 C   0  0  0  0  0  0  0  0  0  0  0  0
   -2.6490   11.4440   15.0380 N   0  0  0  0  0  0  0  0  0  0  0  0
   -2.5890   12.7400   14.9830 C   0  0  0  0  0  0  0  0  0  0  0  0
   -1.4240   13.3640   15.4140 N   0  0  0  0  0  0  0  0  0  0  0  0
   -1.1960   14.6920   15.4030 N   0  0  0  0  0  2  0  0  0  0  0  0
   -3.6220   13.5040   14.5180 N   0  0  0  0  0  0  0  0  0  0  0  0
   -1.7130    9.3900   15.5080 N   0  0  0  0  0  0  0  0  0  0  0  0
   -3.5320   14.5150   14.4800 H   0  0  0  0  0  0  0  0  0  0  0  0
   -4.4690   13.0620   14.1900 H   0  0  0  0  0  0  0  0  0  0  0  0
   -2.6130    9.0430   15.1990 H   0  0  0  0  0  0  0  0  0  0  0  0
    2.4210   17.5700   15.9420 C   0  0  0  0  0  3  0  0  0  0  0  0
    2.0520   16.2800   15.4890 C   0  0  0  0  0  3  0  0  0  0  0  0
    0.8340   15.9820   16.0730 C   0  0  0  0  0  0  0  0  0  0  0  0
    0.4430   17.0340   16.8580 O   0  0  0  0  0  0  0  0  0  0  0  0
    1.4060   17.9850   16.7730 C   0  0  0  0  0  3  0  0  0  0  0  0
   -0.7770    8.4330   16.0530 C   0  0  0  0  0  2  0  0  0  0  0  0
   -1.3580    7.7270   17.2820 C   0  0  0  0  0  2  0  0  0  0  0  0
   -2.2770    6.5820   16.9150 C   0  0  0  0  0  0  0  0  0  0  0  0
   -1.7690    5.2830   16.7750 C   0  0  0  0  0  3  0  0  0  0  0  0
   -2.6090    4.2320   16.4060 C   0  0  0  0  0  3  0  0  0  0  0  0
   -3.9580    4.4770   16.1750 C   0  0  0  0  0  0  0  0  0  0  0  0
   -4.4810    5.7590   16.3080 C   0  0  0  0  0  3  0  0  0  0  0  0
   -3.6400    6.8100   16.6760 C   0  0  0  0  0  3  0  0  0  0  0  0
   -4.7420    3.4220   15.8140 O   0  0  0  0  0  0  0  0  0  0  0  0
   -5.6540    3.7370   15.7070 H   0  0  0  0  0  0  0  0  0  0  0  0
  1 17  1  0  0  0  0
  1  2  2  0  0  0  0
  3  4  1  0  0  0  0
  3  2  2  0  0  0  0
  5  4  2  0  0  0  0
  6  5  1  0  0  0  0
  7  6  2  0  0  0  0
  7  8  1  0  0  0  0
  8  3  1  0  0  0  0
  9  8  1  0  0  0  0
  9  1  1  0  0  0  0
 10  7  1  0  0  0  0
 11  5  1  0  0  0  0
 11 20  1  0  0  0  0
 12 10  1  0  0  0  0
 13 10  1  0  0  0  0
 14 11  1  0  0  0  0
 15 19  2  0  0  0  0
 16 15  1  0  0  0  0
 16 17  2  0  0  0  0
 17 18  1  0  0  0  0
 19 18  1  0  0  0  0
 20 21  1  0  0  0  0
 22 21  1  0  0  0  0
 23 22  1  0  0  0  0
 24 23  2  0  0  0  0
 25 26  2  0  0  0  0
 25 24  1  0  0  0  0
 26 27  1  0  0  0  0
 27 22  2  0  0  0  0
 28 25  1  0  0  0  0
 29 28  1  0  0  0  0
M  END
>  <minimizedAffinity>
-8.17167664

$$$$
