
 OpenBabel11102118173D

 29 32  0  0  0  0  0  0  0  0999 V2000
   -1.1820    4.4860   18.1190 C   0  0  0  0  0  0  0  0  0  0  0  0
   -0.7060    5.7130   17.7040 N   0  0  0  0  0  4  0  0  0  0  0  0
   -1.7790    6.3340   17.2680 C   0  0  0  0  0  0  0  0  0  0  0  0
   -1.9640    7.5740   16.7580 N   0  0  0  0  0  0  0  0  0  0  0  0
   -3.1850    7.9130   16.4410 C   0  0  0  0  0  0  0  0  0  0  0  0
   -4.2820    7.0840   16.5650 N   0  0  0  0  0  0  0  0  0  0  0  0
   -4.1190    5.8890   17.0490 C   0  0  0  0  0  0  0  0  0  0  0  0
   -2.8370    5.4970   17.4170 N   0  0  0  0  0  0  0  0  0  0  0  0
   -2.5050    4.3050   17.9500 N   0  0  0  0  0  2  0  0  0  0  0  0
   -5.1550    5.0130   17.2070 N   0  0  0  0  0  0  0  0  0  0  0  0
   -3.4660    9.1500   15.9510 N   0  0  0  0  0  0  0  0  0  0  0  0
   -4.9890    4.0910   17.5990 H   0  0  0  0  0  0  0  0  0  0  0  0
   -6.0940    5.2900   16.9550 H   0  0  0  0  0  0  0  0  0  0  0  0
   -4.4290    9.3200   15.6900 H   0  0  0  0  0  0  0  0  0  0  0  0
    0.4860    1.5490   19.6420 C   0  0  0  0  0  3  0  0  0  0  0  0
   -0.6700    2.1790   19.1200 C   0  0  0  0  0  3  0  0  0  0  0  0
   -0.2910    3.4490   18.7230 C   0  0  0  0  0  0  0  0  0  0  0  0
    1.0440    3.6190   18.9760 O   0  0  0  0  0  0  0  0  0  0  0  0
    1.5020    2.4680   19.5310 C   0  0  0  0  0  3  0  0  0  0  0  0
   -2.4920   10.1660   15.6210 C   0  0  0  0  0  2  0  0  0  0  0  0
   -2.7300   11.4460   16.4290 C   0  0  0  0  0  2  0  0  0  0  0  0
   -1.5750   12.4180   16.3300 C   0  0  0  0  0  0  0  0  0  0  0  0
   -0.4450   12.1010   15.5640 C   0  0  0  0  0  3  0  0  0  0  0  0
    0.6330   12.9840   15.4960 C   0  0  0  0  0  3  0  0  0  0  0  0
    0.5850   14.1840   16.1950 C   0  0  0  0  0  0  0  0  0  0  0  0
   -0.5270   14.5180   16.9610 C   0  0  0  0  0  3  0  0  0  0  0  0
   -1.6050   13.6340   17.0290 C   0  0  0  0  0  3  0  0  0  0  0  0
    1.6620   15.0160   16.1030 O   0  0  0  0  0  0  0  0  0  0  0  0
    1.4790   15.8160   16.6210 H   0  0  0  0  0  0  0  0  0  0  0  0
  1 17  1  0  0  0  0
  2  1  2  0  0  0  0
  3  8  1  0  0  0  0
  3  2  2  0  0  0  0
  4  3  1  0  0  0  0
  5  6  1  0  0  0  0
  5  4  2  0  0  0  0
  6  7  2  0  0  0  0
  7 10  1  0  0  0  0
  7  8  1  0  0  0  0
  8  9  1  0  0  0  0
  9  1  1  0  0  0  0
 10 12  1  0  0  0  0
 11  5  1  0  0  0  0
 13 10  1  0  0  0  0
 14 11  1  0  0  0  0
 16 15  1  0  0  0  0
 17 18  1  0  0  0  0
 17 16  2  0  0  0  0
 18 19  1  0  0  0  0
 19 15  2  0  0  0  0
 20 11  1  0  0  0  0
 20 21  1  0  0  0  0
 22 21  1  0  0  0  0
 22 27  1  0  0  0  0
 23 22  2  0  0  0  0
 24 23  1  0  0  0  0
 24 25  2  0  0  0  0
 25 26  1  0  0  0  0
 26 27  2  0  0  0  0
 28 25  1  0  0  0  0
 28 29  1  0  0  0  0
M  END
>  <minimizedAffinity>
-8.8870182

$$$$
