
 OpenBabel11102118173D

 29 32  0  0  0  0  0  0  0  0999 V2000
    0.2640   13.8200   14.7300 C   0  0  0  0  0  0  0  0  0  0  0  0
    0.5770   12.5610   15.2030 N   0  0  0  0  0  4  0  0  0  0  0  0
   -0.5930   11.9760   15.3340 C   0  0  0  0  0  0  0  0  0  0  0  0
   -0.9440   10.7320   15.7340 N   0  0  0  0  0  0  0  0  0  0  0  0
   -2.2170   10.4380   15.7240 C   0  0  0  0  0  0  0  0  0  0  0  0
   -3.2180   11.3200   15.3630 N   0  0  0  0  0  0  0  0  0  0  0  0
   -2.8960   12.5190   14.9830 C   0  0  0  0  0  0  0  0  0  0  0  0
   -1.5500   12.8640   14.9590 N   0  0  0  0  0  0  0  0  0  0  0  0
   -1.0520   14.0550   14.5730 N   0  0  0  0  0  2  0  0  0  0  0  0
   -3.8280   13.4450   14.6060 N   0  0  0  0  0  0  0  0  0  0  0  0
   -2.6560    9.2020   16.0800 N   0  0  0  0  0  0  0  0  0  0  0  0
   -3.5350   14.3690   14.3040 H   0  0  0  0  0  0  0  0  0  0  0  0
   -4.8090   13.2030   14.6060 H   0  0  0  0  0  0  0  0  0  0  0  0
   -3.6590    9.0670   16.0870 H   0  0  0  0  0  0  0  0  0  0  0  0
    2.9100   16.0190   13.3560 C   0  0  0  0  0  3  0  0  0  0  0  0
    2.0150   14.9300   13.2190 C   0  0  0  0  0  3  0  0  0  0  0  0
    1.3140   14.8330   14.4070 C   0  0  0  0  0  0  0  0  0  0  0  0
    1.7390   15.8160   15.2600 O   0  0  0  0  0  0  0  0  0  0  0  0
    2.7010   16.5240   14.6170 C   0  0  0  0  0  3  0  0  0  0  0  0
   -1.8330    8.1340   16.6020 C   0  0  0  0  0  2  0  0  0  0  0  0
   -2.6620    6.8720   16.8610 C   0  0  0  0  0  2  0  0  0  0  0  0
   -1.8570    5.7760   17.5260 C   0  0  0  0  0  0  0  0  0  0  0  0
   -2.4350    4.5220   17.7700 C   0  0  0  0  0  3  0  0  0  0  0  0
   -1.7040    3.5210   18.4100 C   0  0  0  0  0  3  0  0  0  0  0  0
   -0.3960    3.7700   18.8090 C   0  0  0  0  0  0  0  0  0  0  0  0
    0.1950    5.0080   18.5760 C   0  0  0  0  0  3  0  0  0  0  0  0
   -0.5370    6.0100   17.9360 C   0  0  0  0  0  3  0  0  0  0  0  0
    0.2800    2.7640   19.4330 O   0  0  0  0  0  0  0  0  0  0  0  0
    1.1790    3.0740   19.6330 H   0  0  0  0  0  0  0  0  0  0  0  0
  1  2  2  0  0  0  0
  2  3  2  0  0  0  0
  3  4  1  0  0  0  0
  5  4  2  0  0  0  0
  5 11  1  0  0  0  0
  6  5  1  0  0  0  0
  7  6  2  0  0  0  0
  8  7  1  0  0  0  0
  8  3  1  0  0  0  0
  9  1  1  0  0  0  0
  9  8  1  0  0  0  0
 10 13  1  0  0  0  0
 10  7  1  0  0  0  0
 11 14  1  0  0  0  0
 11 20  1  0  0  0  0
 12 10  1  0  0  0  0
 15 19  2  0  0  0  0
 16 15  1  0  0  0  0
 16 17  2  0  0  0  0
 17  1  1  0  0  0  0
 17 18  1  0  0  0  0
 19 18  1  0  0  0  0
 20 21  1  0  0  0  0
 21 22  1  0  0  0  0
 22 23  2  0  0  0  0
 22 27  1  0  0  0  0
 23 24  1  0  0  0  0
 24 25  2  0  0  0  0
 25 28  1  0  0  0  0
 26 25  1  0  0  0  0
 27 26  2  0  0  0  0
 28 29  1  0  0  0  0
M  END
>  <minimizedAffinity>
-9.14573479

$$$$
