
 OpenBabel11102118173D

 29 32  0  0  0  0  0  0  0  0999 V2000
    1.0450   15.5850   16.4160 C   0  0  0  0  0  0  0  0  0  0  0  0
    1.0210   14.3440   15.8110 N   0  0  0  0  0  4  0  0  0  0  0  0
   -0.0600   13.7780   16.3000 C   0  0  0  0  0  0  0  0  0  0  0  0
   -0.6320   12.5720   16.0770 N   0  0  0  0  0  0  0  0  0  0  0  0
   -1.7460   12.3140   16.7070 C   0  0  0  0  0  0  0  0  0  0  0  0
   -2.3550   13.1740   17.6010 N   0  0  0  0  0  0  0  0  0  0  0  0
   -1.8140   14.3320   17.8290 C   0  0  0  0  0  0  0  0  0  0  0  0
   -0.6380   14.6540   17.1620 N   0  0  0  0  0  0  0  0  0  0  0  0
    0.0340   15.8160   17.2740 N   0  0  0  0  0  2  0  0  0  0  0  0
   -2.3590   15.2390   18.6950 N   0  0  0  0  0  0  0  0  0  0  0  0
   -2.4040   11.1400   16.5180 N   0  0  0  0  0  0  0  0  0  0  0  0
   -1.9120   16.1390   18.8380 H   0  0  0  0  0  0  0  0  0  0  0  0
   -3.2200   15.0230   19.1760 H   0  0  0  0  0  0  0  0  0  0  0  0
   -3.2380   10.9980   17.0750 H   0  0  0  0  0  0  0  0  0  0  0  0
    3.5590   17.9450   15.0610 C   0  0  0  0  0  3  0  0  0  0  0  0
    2.5350   16.9860   14.8670 C   0  0  0  0  0  3  0  0  0  0  0  0
    2.1090   16.5930   16.1220 C   0  0  0  0  0  0  0  0  0  0  0  0
    2.8250   17.2710   17.0720 O   0  0  0  0  0  0  0  0  0  0  0  0
    3.6960   18.0820   16.4220 C   0  0  0  0  0  3  0  0  0  0  0  0
   -1.9310   10.0260   15.7260 C   0  0  0  0  0  2  0  0  0  0  0  0
   -2.6110    8.7190   16.1450 C   0  0  0  0  0  2  0  0  0  0  0  0
   -1.6620    7.7700   16.8460 C   0  0  0  0  0  0  0  0  0  0  0  0
   -0.3560    8.1740   17.1550 C   0  0  0  0  0  3  0  0  0  0  0  0
    0.5290    7.2910   17.7740 C   0  0  0  0  0  3  0  0  0  0  0  0
    0.1110    6.0020   18.0840 C   0  0  0  0  0  0  0  0  0  0  0  0
   -1.1810    5.5810   17.7860 C   0  0  0  0  0  3  0  0  0  0  0  0
   -2.0660    6.4660   17.1660 C   0  0  0  0  0  3  0  0  0  0  0  0
    1.0090    5.1710   18.6860 O   0  0  0  0  0  0  0  0  0  0  0  0
    0.5740    4.3200   18.8590 H   0  0  0  0  0  0  0  0  0  0  0  0
  1  9  1  0  0  0  0
  2  3  2  0  0  0  0
  2  1  2  0  0  0  0
  3  8  1  0  0  0  0
  4  3  1  0  0  0  0
  4  5  2  0  0  0  0
  5  6  1  0  0  0  0
  6  7  2  0  0  0  0
  7 10  1  0  0  0  0
  8  9  1  0  0  0  0
  8  7  1  0  0  0  0
 10 12  1  0  0  0  0
 10 13  1  0  0  0  0
 11  5  1  0  0  0  0
 11 14  1  0  0  0  0
 15 19  2  0  0  0  0
 16 15  1  0  0  0  0
 16 17  2  0  0  0  0
 17  1  1  0  0  0  0
 17 18  1  0  0  0  0
 19 18  1  0  0  0  0
 20 21  1  0  0  0  0
 20 11  1  0  0  0  0
 21 22  1  0  0  0  0
 22 23  2  0  0  0  0
 22 27  1  0  0  0  0
 23 24  1  0  0  0  0
 24 25  2  0  0  0  0
 25 28  1  0  0  0  0
 26 25  1  0  0  0  0
 27 26  2  0  0  0  0
 28 29  1  0  0  0  0
M  END
>  <minimizedAffinity>
-8.99002361

$$$$
