
 OpenBabel11102118173D

 29 32  0  0  0  0  0  0  0  0999 V2000
   -1.4690   13.1550   15.9200 C   0  0  0  0  0  0  0  0  0  0  0  0
   -0.6470   12.1050   16.2770 N   0  0  0  0  0  4  0  0  0  0  0  0
   -1.4370   11.0560   16.2180 C   0  0  0  0  0  0  0  0  0  0  0  0
   -1.2120    9.7390   16.4360 N   0  0  0  0  0  0  0  0  0  0  0  0
   -2.2170    8.9250   16.2610 C   0  0  0  0  0  0  0  0  0  0  0  0
   -3.4910    9.3230   15.9000 N   0  0  0  0  0  0  0  0  0  0  0  0
   -3.7220   10.5840   15.6940 C   0  0  0  0  0  0  0  0  0  0  0  0
   -2.6720   11.4810   15.8500 N   0  0  0  0  0  0  0  0  0  0  0  0
   -2.7430   12.8130   15.6550 N   0  0  0  0  0  2  0  0  0  0  0  0
   -4.9520   11.0550   15.3300 N   0  0  0  0  0  0  0  0  0  0  0  0
   -2.0730    7.5830   16.4270 N   0  0  0  0  0  0  0  0  0  0  0  0
   -5.0910   12.0470   15.1660 H   0  0  0  0  0  0  0  0  0  0  0  0
   -5.7210   10.4120   15.2010 H   0  0  0  0  0  0  0  0  0  0  0  0
   -2.9100    7.0250   16.3150 H   0  0  0  0  0  0  0  0  0  0  0  0
   -0.4730   16.6230   15.0780 C   0  0  0  0  0  3  0  0  0  0  0  0
   -1.0970   15.4000   14.7330 C   0  0  0  0  0  3  0  0  0  0  0  0
   -0.9680   14.5610   15.8250 C   0  0  0  0  0  0  0  0  0  0  0  0
   -0.2970   15.2190   16.8200 O   0  0  0  0  0  0  0  0  0  0  0  0
   -0.0020   16.4600   16.3590 C   0  0  0  0  0  3  0  0  0  0  0  0
   -0.8830    6.9170   16.9070 C   0  0  0  0  0  2  0  0  0  0  0  0
   -1.2280    5.8430   17.9430 C   0  0  0  0  0  2  0  0  0  0  0  0
   -2.2830    4.8770   17.4490 C   0  0  0  0  0  0  0  0  0  0  0  0
   -3.3950    4.5750   18.2460 C   0  0  0  0  0  3  0  0  0  0  0  0
   -4.3530    3.6620   17.8050 C   0  0  0  0  0  3  0  0  0  0  0  0
   -4.2010    3.0480   16.5670 C   0  0  0  0  0  0  0  0  0  0  0  0
   -3.1040    3.3340   15.7610 C   0  0  0  0  0  3  0  0  0  0  0  0
   -2.1450    4.2470   16.2030 C   0  0  0  0  0  3  0  0  0  0  0  0
   -5.1590    2.1600   16.1770 O   0  0  0  0  0  0  0  0  0  0  0  0
   -4.9320    1.8300   15.2920 H   0  0  0  0  0  0  0  0  0  0  0  0
  1  2  2  0  0  0  0
  3  2  2  0  0  0  0
  3  4  1  0  0  0  0
  5 11  1  0  0  0  0
  5  4  2  0  0  0  0
  6  5  1  0  0  0  0
  7  8  1  0  0  0  0
  7  6  2  0  0  0  0
  8  3  1  0  0  0  0
  9  8  1  0  0  0  0
  9  1  1  0  0  0  0
 10  7  1  0  0  0  0
 11 20  1  0  0  0  0
 12 10  1  0  0  0  0
 13 10  1  0  0  0  0
 14 11  1  0  0  0  0
 15 19  2  0  0  0  0
 16 15  1  0  0  0  0
 16 17  2  0  0  0  0
 17  1  1  0  0  0  0
 17 18  1  0  0  0  0
 19 18  1  0  0  0  0
 20 21  1  0  0  0  0
 22 21  1  0  0  0  0
 22 23  1  0  0  0  0
 24 23  2  0  0  0  0
 25 24  1  0  0  0  0
 26 27  1  0  0  0  0
 26 25  2  0  0  0  0
 27 22  2  0  0  0  0
 28 25  1  0  0  0  0
 29 28  1  0  0  0  0
M  END
>  <minimizedAffinity>
-7.71121407

$$$$
